[Format]      =  4.0
[Frequency]   =  0
[Precision]   =  1e-008
[MinAngle]    =  30
[DoSmartMesh] =  1
[Depth]       =  2
[LengthUnits] =  millimeters
[ProblemType] =  planar
[Coordinates] =  cartesian
[ACSolver]    =  0
[PrevType]    =  0
[PrevSoln]    =  ""
[Comment]     =  "Add comments here."
[PointProps]   = 0
[BdryProps]   = 0
[BlockProps]  = 2
  <BeginBlock>
    <BlockName> = "Air"
    <Mu_x> = 1
    <Mu_y> = 1
    <H_c> = 0
    <H_cAngle> = 0
    <J_re> = 0
    <J_im> = 0
    <Sigma> = 0
    <d_lam> = 0
    <Phi_h> = 0
    <Phi_hx> = 0
    <Phi_hy> = 0
    <LamType> = 0
    <LamFill> = 1
    <NStrands> = 0
    <WireD> = 0
    <BHPoints> = 0
  <EndBlock>
  <BeginBlock>
    <BlockName> = "N45"
    <Mu_x> = 1.05
    <Mu_y> = 1.05
    <H_c> = 1030272
    <H_cAngle> = 0
    <J_re> = 0
    <J_im> = 0
    <Sigma> = 0.66700000000000004
    <d_lam> = 0
    <Phi_h> = 0
    <Phi_hx> = 0
    <Phi_hy> = 0
    <LamType> = 0
    <LamFill> = 1
    <NStrands> = 0
    <WireD> = 0
    <BHPoints> = 0
  <EndBlock>
[CircuitProps]  = 0
[NumPoints] = 77
-1	0	0	0
1	0	0	0
1	5	0	0
-1	5	0	0
1	50	0	0
0	-50	0	0
0	0	0	0
0	-20	0	0
0	-1	0	0
0	-2	0	0
0	-3	0	0
0	-4	0	0
0	-5	0	0
0	-6	0	0
0	-7	0	0
0	-8	0	0
0	-9	0	0
0	-10	0	0
0	-11	0	0
0	-12	0	0
0	-13	0	0
0	-14	0	0
0	-15	0	0
0	-16	0	0
0	-17	0	0
0	-18	0	0
0	-19	0	0
0.20000000000000001	-20	0	0
0.40000000000000002	-20	0	0
0.60000000000000009	-20	0	0
0.80000000000000004	-20	0	0
1	-20	0	0
1.2000000000000002	-20	0	0
1.4000000000000001	-20	0	0
1.6000000000000001	-20	0	0
1.8	-20	0	0
2	-20	0	0
2.2000000000000002	-20	0	0
2.4000000000000004	-20	0	0
2.6000000000000001	-20	0	0
2.8000000000000003	-20	0	0
3	-20	0	0
3.2000000000000002	-20	0	0
3.4000000000000004	-20	0	0
3.6000000000000001	-20	0	0
3.8000000000000003	-20	0	0
4	-20	0	0
4.2000000000000002	-20	0	0
4.4000000000000004	-20	0	0
4.6000000000000005	-20	0	0
4.8000000000000007	-20	0	0
5	-20	0	0
-0.20000000000000001	-20	0	0
-0.40000000000000002	-20	0	0
-0.60000000000000009	-20	0	0
-0.80000000000000004	-20	0	0
-1	-20	0	0
-1.2000000000000002	-20	0	0
-1.4000000000000001	-20	0	0
-1.6000000000000001	-20	0	0
-1.8	-20	0	0
-2	-20	0	0
-2.2000000000000002	-20	0	0
-2.4000000000000004	-20	0	0
-2.6000000000000001	-20	0	0
-2.8000000000000003	-20	0	0
-3	-20	0	0
-3.2000000000000002	-20	0	0
-3.4000000000000004	-20	0	0
-3.6000000000000001	-20	0	0
-3.8000000000000003	-20	0	0
-4	-20	0	0
-4.2000000000000002	-20	0	0
-4.4000000000000004	-20	0	0
-4.6000000000000005	-20	0	0
-4.8000000000000007	-20	0	0
-5	-20	0	0
[NumSegments] = 75
2	1	-1	0	0	0
0	6	-1	0	0	0
2	3	-1	0	0	0
0	3	-1	0	0	0
6	1	-1	0	0	0
6	8	-1	0	0	0
8	9	-1	0	0	0
9	10	-1	0	0	0
10	11	-1	0	0	0
11	12	-1	0	0	0
12	13	-1	0	0	0
13	14	-1	0	0	0
14	15	-1	0	0	0
15	16	-1	0	0	0
16	17	-1	0	0	0
17	18	-1	0	0	0
18	19	-1	0	0	0
19	20	-1	0	0	0
20	21	-1	0	0	0
21	22	-1	0	0	0
22	23	-1	0	0	0
23	24	-1	0	0	0
24	25	-1	0	0	0
25	26	-1	0	0	0
26	7	-1	0	0	0
76	75	-1	0	0	0
75	74	-1	0	0	0
74	73	-1	0	0	0
73	72	-1	0	0	0
72	71	-1	0	0	0
71	70	-1	0	0	0
70	69	-1	0	0	0
69	68	-1	0	0	0
68	67	-1	0	0	0
67	66	-1	0	0	0
66	65	-1	0	0	0
65	64	-1	0	0	0
64	63	-1	0	0	0
63	62	-1	0	0	0
62	61	-1	0	0	0
61	60	-1	0	0	0
60	59	-1	0	0	0
59	58	-1	0	0	0
58	57	-1	0	0	0
57	56	-1	0	0	0
56	55	-1	0	0	0
55	54	-1	0	0	0
54	53	-1	0	0	0
53	52	-1	0	0	0
52	7	-1	0	0	0
7	27	-1	0	0	0
27	28	-1	0	0	0
28	29	-1	0	0	0
29	30	-1	0	0	0
30	31	-1	0	0	0
31	32	-1	0	0	0
32	33	-1	0	0	0
33	34	-1	0	0	0
34	35	-1	0	0	0
35	36	-1	0	0	0
36	37	-1	0	0	0
37	38	-1	0	0	0
38	39	-1	0	0	0
39	40	-1	0	0	0
40	41	-1	0	0	0
41	42	-1	0	0	0
42	43	-1	0	0	0
43	44	-1	0	0	0
44	45	-1	0	0	0
45	46	-1	0	0	0
46	47	-1	0	0	0
47	48	-1	0	0	0
48	49	-1	0	0	0
49	50	-1	0	0	0
50	51	-1	0	0	0
[NumArcSegments] = 2
4	5	180	1	0	0	0	1
5	4	180	1	0	0	0	1
[NumHoles] = 0
[NumBlockLabels] = 2
3	2	1	-1	0	0	0	1	0
0	2	2	-1	0	0	0	1	0
